<?xml version="1.0" encoding="UTF-8"?>

<!-- generated on 2024-11-15 09:53:40 by Eclipse SUMO netedit Version 1.20.0
<configuration xmlns:xsi="http://www.w3.org/2001/XMLSchema-instance" xsi:noNamespaceSchemaLocation="http://sumo.dlr.de/xsd/neteditConfiguration.xsd">

    <input>
        <sumocfg-file value="C:\Users\Yasin\Desktop\OPEVA\Diger\Data\V3.2\configs\Esogü_map_v3.2\dennn.sumocfg"/>
        <additional-files value="C:\Users\Yasin\Desktop\OPEVA\Diger\Data\V3.2\configs\Esogü_map_v3.2\cs.add.xml"/>
        <route-files value="C:\Users\Yasin\Desktop\OPEVA\Diger\Data\V3.2\configs\Esogü_map_v3.2\Route4Sim.xml"/>
        <sumo-net-file value="C:\Users\Yasin\Desktop\OPEVA\Diger\Data\V3.2\configs\Esogü_map_v3.2\osm.net.xml"/>
    </input>

    <output>
        <output-file value="C:\Users\Yasin\Desktop\OPEVA\Diger\Data\V3.2\configs\Esogü_map_v3.2\osm.net.xml"/>
        <output.street-names value="true"/>
    </output>

    <processing>
        <geometry.min-radius.fix.railways value="false"/>
        <geometry.max-grade.fix value="false"/>
        <offset.disable-normalization value="true"/>
        <lefthand value="0"/>
    </processing>

    <junctions>
        <no-turnarounds value="true"/>
        <junctions.corner-detail value="5"/>
        <junctions.limit-turn-speed value="5.50"/>
        <rectangular-lane-cut value="0"/>
    </junctions>

    <pedestrian>
        <walkingareas value="0"/>
    </pedestrian>

</configuration>
-->

<net version="1.20" junctionCornerDetail="5" limitTurnSpeed="5.50" xmlns:xsi="http://www.w3.org/2001/XMLSchema-instance" xsi:noNamespaceSchemaLocation="http://sumo.dlr.de/xsd/net_file.xsd">

    <location netOffset="-278956.86,-4400294.47" convBoundary="4012.38,1943.42,6315.04,3428.42" origBoundary="30.420349,39.725431,30.513154,39.768309" projParameter="+proj=utm +zone=36 +ellps=WGS84 +datum=WGS84 +units=m +no_defs"/>

    <type id="highway.cycleway" priority="1" numLanes="1" speed="5.56" allow="bicycle" oneway="0" width="1.00"/>
    <type id="highway.footway" priority="1" numLanes="1" speed="2.78" allow="pedestrian" oneway="1" width="2.00"/>
    <type id="highway.path" priority="1" numLanes="1" speed="5.56" allow="pedestrian bicycle" oneway="0" width="2.00"/>
    <type id="highway.pedestrian" priority="1" numLanes="1" speed="2.78" allow="pedestrian" oneway="1" width="2.00"/>
    <type id="highway.primary" priority="12" numLanes="2" speed="27.78" disallow="tram rail_urban rail rail_electric rail_fast ship" oneway="0"/>
    <type id="highway.primary_link" priority="7" numLanes="1" speed="22.22" disallow="tram rail_urban rail rail_electric rail_fast ship" oneway="0"/>
    <type id="highway.residential" priority="3" numLanes="1" speed="13.89" disallow="tram rail_urban rail rail_electric rail_fast ship" oneway="0"/>
    <type id="highway.service" priority="1" numLanes="1" speed="5.56" allow="pedestrian delivery bicycle" oneway="0"/>
    <type id="highway.steps" priority="1" numLanes="1" speed="1.39" allow="pedestrian" oneway="1" width="2.00"/>
    <type id="highway.tertiary" priority="10" numLanes="1" speed="22.22" disallow="tram rail_urban rail rail_electric rail_fast ship" oneway="0"/>
    <type id="highway.track" priority="1" numLanes="1" speed="5.56" allow="pedestrian motorcycle moped bicycle" oneway="0"/>
    <type id="highway.unclassified" priority="4" numLanes="1" speed="13.89" disallow="tram rail_urban rail rail_electric rail_fast ship" oneway="0"/>

    <edge id=":2225294561_0" function="internal">
        <lane id=":2225294561_0_0" index="0" disallow="tram rail_urban rail rail_electric rail_fast ship cable_car subway" speed="5.56" length="9.63" shape="4860.35,2476.42,821.23 4859.91,2473.71,821.23 4858.82,2471.72,821.23 4857.07,2470.45,821.23 4854.68,2469.92,821.23"/>
    </edge>
    <edge id=":2225294561_1" function="internal">
        <lane id=":2225294561_1_0" index="0" disallow="tram rail_urban rail rail_electric rail_fast ship cable_car subway" speed="5.56" length="14.67" shape="4860.35,2476.42,821.23 4860.78,2472.36,821.21 4862.43,2469.56,821.19 4865.29,2468.04,821.18 4869.37,2467.79,821.16"/>
    </edge>
    <edge id=":2225294561_2" function="internal">
        <lane id=":2225294561_2_0" index="0" disallow="tram rail_urban rail rail_electric rail_fast ship cable_car subway" speed="3.65" length="4.67" shape="4860.35,2476.42,821.23 4861.10,2475.19,821.23 4861.89,2474.76,821.23 4862.70,2475.13,821.23 4863.55,2476.30,821.23"/>
    </edge>
    <edge id=":2225294561_3" function="internal">
        <lane id=":2225294561_3_0" index="0" disallow="tram rail_urban rail rail_electric rail_fast ship cable_car subway" speed="5.56" length="9.05" shape="4869.11,2470.98,821.15 4866.60,2471.13,821.17 4864.83,2472.07,821.19 4863.81,2473.79,821.21 4863.55,2476.30,821.23"/>
    </edge>
    <edge id=":2225294561_4" function="internal">
        <lane id=":2225294561_4_0" index="0" disallow="tram rail_urban rail rail_electric rail_fast ship cable_car subway" speed="5.56" length="14.47" shape="4869.11,2470.98,821.15 4854.68,2469.92,821.23"/>
    </edge>
    <edge id=":2225294561_5" function="internal">
        <lane id=":2225294561_5_0" index="0" disallow="tram rail_urban rail rail_electric rail_fast ship cable_car subway" speed="3.65" length="4.67" shape="4869.11,2470.98,821.15 4867.98,2470.08,821.15 4867.65,2469.25,821.15 4868.11,2468.49,821.16 4869.37,2467.79,821.16"/>
    </edge>
    <edge id=":2225294561_6" function="internal">
        <lane id=":2225294561_6_0" index="0" disallow="tram rail_urban rail rail_electric rail_fast ship cable_car subway" speed="5.56" length="14.53" shape="4854.89,2466.72,821.23 4869.37,2467.79,821.16"/>
    </edge>
    <edge id=":2225294561_7" function="internal">
        <lane id=":2225294561_7_0" index="0" disallow="tram rail_urban rail rail_electric rail_fast ship cable_car subway" speed="5.56" length="14.41" shape="4854.89,2466.72,821.23 4858.55,2467.52,821.23 4861.21,2469.38,821.23 4862.88,2472.31,821.23 4863.55,2476.30,821.23"/>
    </edge>
    <edge id=":2225294561_8" function="internal">
        <lane id=":2225294561_8_0" index="0" disallow="tram rail_urban rail rail_electric rail_fast ship cable_car subway" speed="3.65" length="4.67" shape="4854.89,2466.72,821.23 4856.03,2467.60,821.23 4856.38,2468.42,821.23 4855.93,2469.19,821.23 4854.68,2469.92,821.23"/>
    </edge>
    <edge id=":2225294602_0" function="internal">
        <lane id=":2225294602_0_0" index="0" speed="5.56" length="11.96" shape="4874.17,2683.04,814.78 4862.23,2683.21,814.16"/>
    </edge>
    <edge id=":2225294602_1" function="internal">
        <lane id=":2225294602_1_0" index="0" disallow="tram rail_urban rail rail_electric rail_fast ship cable_car subway" speed="5.56" length="12.32" shape="4874.17,2683.04,814.78 4871.34,2682.46,814.67 4869.27,2680.83,814.57 4867.97,2678.14,814.46 4867.45,2674.38,814.32"/>
    </edge>
    <edge id=":2225294602_2" function="internal">
        <lane id=":2225294602_2_0" index="0" speed="3.65" length="4.67" shape="4874.17,2683.04,814.78 4872.99,2682.22,814.78 4872.60,2681.42,814.78 4873.01,2680.62,814.78 4874.22,2679.84,814.78"/>
    </edge>
    <edge id=":2225294602_3" function="internal">
        <lane id=":2225294602_3_0" index="0" disallow="tram rail_urban rail rail_electric rail_fast ship cable_car subway" speed="5.56" length="7.37" shape="4870.64,2674.28,814.32 4870.94,2676.69,814.47 4871.63,2678.42,814.59 4872.72,2679.47,814.68 4874.22,2679.84,814.78"/>
    </edge>
    <edge id=":2225294602_4" function="internal">
        <lane id=":2225294602_4_0" index="0" disallow="tram rail_urban rail rail_electric rail_fast ship cable_car subway" speed="5.56" length="14.00" shape="4870.64,2674.28,814.32 4870.23,2678.07,814.28 4868.68,2680.83,814.24 4866.02,2682.54,814.20 4862.23,2683.21,814.16"/>
    </edge>
    <edge id=":2225294602_5" function="internal">
        <lane id=":2225294602_5_0" index="0" disallow="tram rail_urban rail rail_electric rail_fast ship cable_car subway" speed="3.65" length="4.67" shape="4870.64,2674.28,814.32 4869.88,2675.50,814.32 4869.10,2675.93,814.32 4868.29,2675.56,814.32 4867.45,2674.38,814.32"/>
    </edge>
    <edge id=":2225294602_6" function="internal">
        <lane id=":2225294602_6_0" index="0" disallow="tram rail_urban rail rail_electric rail_fast ship cable_car subway" speed="5.56" length="7.79" shape="4862.15,2680.10,814.16 4867.45,2674.38,814.32"/>
    </edge>
    <edge id=":2225294602_7" function="internal">
        <lane id=":2225294602_7_0" index="0" speed="5.56" length="12.08" shape="4862.15,2680.10,814.16 4874.22,2679.84,814.78"/>
    </edge>
    <edge id=":2225294602_8" function="internal">
        <lane id=":2225294602_8_0" index="0" speed="3.22" length="3.11" shape="4862.15,2680.10,814.16 4862.23,2683.21,814.16"/>
    </edge>
    <edge id=":2225294604_0" function="internal">
        <lane id=":2225294604_0_0" index="0" disallow="tram rail_urban rail rail_electric rail_fast ship cable_car subway" speed="13.89" length="14.29" shape="4826.37,2689.74,814.63 4825.93,2675.46,814.63"/>
    </edge>
    <edge id=":2225294604_1" function="internal">
        <lane id=":2225294604_1_0" index="0" disallow="tram rail_urban rail rail_electric rail_fast ship cable_car subway" speed="8.00" length="4.00" shape="4826.37,2689.74,814.63 4826.83,2685.89,814.63 4826.89,2685.79,814.63"/>
    </edge>
    <edge id=":2225294604_2" function="internal">
        <lane id=":2225294604_2_0" index="0" disallow="tram rail_urban rail rail_electric rail_fast ship cable_car subway" speed="3.65" length="1.44" shape="4826.37,2689.74,814.63 4827.14,2688.52,814.63"/>
    </edge>
    <edge id=":2225294604_9" function="internal">
        <lane id=":2225294604_9_0" index="0" disallow="tram rail_urban rail rail_electric rail_fast ship cable_car subway" speed="8.00" length="10.17" shape="4826.89,2685.79,814.63 4828.42,2683.11,814.63 4831.12,2681.40,814.63 4834.95,2680.76,814.63"/>
    </edge>
    <edge id=":2225294604_10" function="internal">
        <lane id=":2225294604_10_0" index="0" disallow="tram rail_urban rail rail_electric rail_fast ship cable_car subway" speed="3.65" length="3.23" shape="4827.14,2688.52,814.63 4827.93,2688.11,814.63 4828.74,2688.49,814.63 4829.57,2689.67,814.63"/>
    </edge>
    <edge id=":2225294604_3" function="internal">
        <lane id=":2225294604_3_0" index="0" disallow="tram rail_urban rail rail_electric rail_fast ship cable_car subway" speed="6.51" length="9.01" shape="4835.03,2683.95,814.46 4832.59,2684.36,814.51 4830.87,2685.45,814.55 4829.86,2687.22,814.58 4829.57,2689.67,814.63"/>
    </edge>
    <edge id=":2225294604_4" function="internal">
        <lane id=":2225294604_4_0" index="0" disallow="tram rail_urban rail rail_electric rail_fast ship cable_car subway" speed="8.03" length="14.15" shape="4835.03,2683.95,814.46 4831.18,2683.50,814.51 4828.38,2681.94,814.55 4826.63,2679.26,814.58 4825.93,2675.46,814.63"/>
    </edge>
    <edge id=":2225294604_5" function="internal">
        <lane id=":2225294604_5_0" index="0" speed="3.65" length="4.67" shape="4835.03,2683.95,814.46 4833.81,2683.18,814.52 4833.39,2682.39,814.55 4833.77,2681.59,814.58 4834.95,2680.76,814.63"/>
    </edge>
    <edge id=":2225294604_6" function="internal">
        <lane id=":2225294604_6_0" index="0" disallow="tram rail_urban rail rail_electric rail_fast ship cable_car subway" speed="6.55" length="9.04" shape="4829.13,2675.33,814.63 4829.58,2677.76,814.63 4830.69,2679.47,814.63 4832.49,2680.47,814.63 4834.95,2680.76,814.63"/>
    </edge>
    <edge id=":2225294604_7" function="internal">
        <lane id=":2225294604_7_0" index="0" disallow="tram rail_urban rail rail_electric rail_fast ship cable_car subway" speed="13.89" length="14.35" shape="4829.13,2675.33,814.63 4829.57,2689.67,814.63"/>
    </edge>
    <edge id=":2225294604_8" function="internal">
        <lane id=":2225294604_8_0" index="0" disallow="tram rail_urban rail rail_electric rail_fast ship cable_car subway" speed="3.65" length="1.44" shape="4829.13,2675.33,814.63 4828.38,2676.56,814.63"/>
    </edge>
    <edge id=":2225294604_11" function="internal">
        <lane id=":2225294604_11_0" index="0" disallow="tram rail_urban rail rail_electric rail_fast ship cable_car subway" speed="3.65" length="3.23" shape="4828.38,2676.56,814.63 4827.59,2676.99,814.63 4826.78,2676.63,814.63 4825.93,2675.46,814.63"/>
    </edge>
    <edge id=":2225294620_0" function="internal">
        <lane id=":2225294620_0_0" index="0" disallow="tram rail_urban rail rail_electric rail_fast ship cable_car subway" speed="13.89" length="6.98" shape="4699.67,2724.27,810.61 4699.42,2717.30,810.73"/>
    </edge>
    <edge id=":2225294620_1" function="internal">
        <lane id=":2225294620_1_0" index="0" disallow="tram rail_urban rail rail_electric rail_fast ship cable_car subway" speed="3.65" length="1.44" shape="4699.67,2724.27,810.61 4700.43,2723.05,810.61"/>
    </edge>
    <edge id=":2225294620_6" function="internal">
        <lane id=":2225294620_6_0" index="0" disallow="tram rail_urban rail rail_electric rail_fast ship cable_car subway" speed="3.65" length="3.23" shape="4700.43,2723.05,810.61 4701.21,2722.62,810.61 4702.03,2723.00,810.61 4702.87,2724.17,810.61"/>
    </edge>
    <edge id=":2225294620_2" function="internal">
        <lane id=":2225294620_2_0" index="0" allow="pedestrian bicycle" speed="4.66" length="4.53" width="2.00" shape="4705.89,2721.57,810.61 4704.53,2721.77,810.61 4703.58,2722.27,810.61 4703.02,2723.07,810.61 4702.87,2724.17,810.61"/>
    </edge>
    <edge id=":2225294620_3" function="internal">
        <lane id=":2225294620_3_0" index="0" allow="pedestrian bicycle" speed="6.30" length="8.75" width="2.00" shape="4705.89,2721.57,810.61 4703.12,2721.38,810.65 4701.12,2720.60,810.68 4699.89,2719.24,810.70 4699.42,2717.30,810.73"/>
    </edge>
    <edge id=":2225294620_4" function="internal">
        <lane id=":2225294620_4_0" index="0" disallow="tram rail_urban rail rail_electric rail_fast ship cable_car subway" speed="13.89" length="6.99" shape="4702.62,2717.18,810.73 4702.87,2724.17,810.61"/>
    </edge>
    <edge id=":2225294620_5" function="internal">
        <lane id=":2225294620_5_0" index="0" disallow="tram rail_urban rail rail_electric rail_fast ship cable_car subway" speed="3.65" length="1.44" shape="4702.62,2717.18,810.73 4701.86,2718.41,810.73"/>
    </edge>
    <edge id=":2225294620_7" function="internal">
        <lane id=":2225294620_7_0" index="0" disallow="tram rail_urban rail rail_electric rail_fast ship cable_car subway" speed="3.65" length="3.23" shape="4701.86,2718.41,810.73 4701.08,2718.84,810.73 4700.26,2718.47,810.73 4699.42,2717.30,810.73"/>
    </edge>
    <edge id=":2225294623_0" function="internal">
        <lane id=":2225294623_0_0" index="0" disallow="tram rail_urban rail rail_electric rail_fast ship cable_car subway" speed="13.89" length="10.52" shape="5816.42,2740.14,819.99 5816.32,2729.62,820.24"/>
    </edge>
    <edge id=":2225294623_1" function="internal">
        <lane id=":2225294623_1_0" index="0" disallow="tram rail_urban rail rail_electric rail_fast ship cable_car subway" speed="13.89" length="10.50" shape="5819.52,2729.61,820.24 5819.62,2740.10,819.99"/>
    </edge>
    <edge id=":2225294623_2" function="internal">
        <lane id=":2225294623_2_0" index="0" allow="pedestrian bicycle" speed="2.78" length="2.69" width="2.00" shape="5811.68,2737.88,820.25 5812.49,2737.67,820.24 5812.98,2737.81,820.23 5813.17,2738.28,820.23 5813.06,2739.11,820.22"/>
    </edge>
    <edge id=":2225294627_0" function="internal">
        <lane id=":2225294627_0_0" index="0" disallow="tram rail_urban rail rail_electric rail_fast ship cable_car subway" speed="6.42" length="8.73" shape="4709.75,2784.15,808.61 4707.45,2784.49,808.57 4705.81,2785.52,808.53 4704.80,2787.25,808.50 4704.45,2789.68,808.46"/>
    </edge>
    <edge id=":2225294627_1" function="internal">
        <lane id=":2225294627_1_0" index="0" disallow="tram rail_urban rail rail_electric rail_fast ship cable_car subway" speed="7.97" length="13.84" shape="4709.75,2784.15,808.61 4706.07,2783.59,808.55 4703.42,2781.96,808.49 4701.79,2779.25,808.44 4701.19,2775.45,808.38"/>
    </edge>
    <edge id=":2225294627_2" function="internal">
        <lane id=":2225294627_2_0" index="0" disallow="tram rail_urban rail rail_electric rail_fast ship cable_car subway" speed="3.65" length="4.67" shape="4709.75,2784.15,808.61 4708.56,2783.34,808.63 4708.16,2782.53,808.64 4708.57,2781.74,808.66 4709.78,2780.95,808.68"/>
    </edge>
    <edge id=":2225294627_3" function="internal">
        <lane id=":2225294627_3_0" index="0" disallow="tram rail_urban rail rail_electric rail_fast ship cable_car subway" speed="6.48" length="8.78" shape="4704.39,2775.39,808.38 4704.77,2777.82,808.46 4705.79,2779.55,808.53 4707.46,2780.59,808.60 4709.78,2780.95,808.68"/>
    </edge>
    <edge id=":2225294627_4" function="internal">
        <lane id=":2225294627_4_0" index="0" disallow="tram rail_urban rail rail_electric rail_fast ship cable_car subway" speed="13.89" length="14.29" shape="4704.39,2775.39,808.38 4704.45,2789.68,808.46"/>
    </edge>
    <edge id=":2225294627_5" function="internal">
        <lane id=":2225294627_5_0" index="0" disallow="tram rail_urban rail rail_electric rail_fast ship cable_car subway" speed="3.65" length="1.44" shape="4704.39,2775.39,808.38 4703.62,2776.61,808.38"/>
    </edge>
    <edge id=":2225294627_9" function="internal">
        <lane id=":2225294627_9_0" index="0" disallow="tram rail_urban rail rail_electric rail_fast ship cable_car subway" speed="3.65" length="3.23" shape="4703.62,2776.61,808.38 4702.82,2777.02,808.38 4702.02,2776.64,808.38 4701.19,2775.45,808.38"/>
    </edge>
    <edge id=":2225294627_6" function="internal">
        <lane id=":2225294627_6_0" index="0" disallow="tram rail_urban rail rail_electric rail_fast ship cable_car subway" speed="13.89" length="14.19" shape="4701.25,2789.65,808.46 4701.19,2775.45,808.38"/>
    </edge>
    <edge id=":2225294627_7" function="internal">
        <lane id=":2225294627_7_0" index="0" disallow="tram rail_urban rail rail_electric rail_fast ship cable_car subway" speed="7.94" length="3.98" shape="4701.25,2789.65,808.46 4701.82,2785.83,808.52 4701.88,2785.73,808.52"/>
    </edge>
    <edge id=":2225294627_8" function="internal">
        <lane id=":2225294627_8_0" index="0" disallow="tram rail_urban rail rail_electric rail_fast ship cable_car subway" speed="3.65" length="1.44" shape="4701.25,2789.65,808.46 4702.06,2788.46,808.46"/>
    </edge>
    <edge id=":2225294627_10" function="internal">
        <lane id=":2225294627_10_0" index="0" disallow="tram rail_urban rail rail_electric rail_fast ship cable_car subway" speed="7.94" length="9.89" shape="4701.88,2785.73,808.52 4703.43,2783.11,808.57 4706.08,2781.48,808.62 4709.78,2780.95,808.68"/>
    </edge>
    <edge id=":2225294627_11" function="internal">
        <lane id=":2225294627_11_0" index="0" disallow="tram rail_urban rail rail_electric rail_fast ship cable_car subway" speed="3.65" length="3.23" shape="4702.06,2788.46,808.46 4702.87,2788.07,808.46 4703.66,2788.48,808.46 4704.45,2789.68,808.46"/>
    </edge>
    <edge id=":2225294628_0" function="internal">
        <lane id=":2225294628_0_0" index="0" disallow="tram rail_urban rail rail_electric rail_fast ship cable_car subway" speed="13.89" length="14.39" shape="4829.16,2805.32,808.51 4828.89,2790.93,808.51"/>
    </edge>
    <edge id=":2225294628_1" function="internal">
        <lane id=":2225294628_1_0" index="0" disallow="tram rail_urban rail rail_electric rail_fast ship cable_car subway" speed="7.97" length="4.07" shape="4829.16,2805.32,808.51 4829.65,2801.43,808.56 4829.72,2801.30,808.56"/>
    </edge>
    <edge id=":2225294628_2" function="internal">
        <lane id=":2225294628_2_0" index="0" disallow="tram rail_urban rail rail_electric rail_fast ship cable_car subway" speed="3.65" length="1.44" shape="4829.16,2805.32,808.51 4829.94,2804.10,808.51"/>
    </edge>
    <edge id=":2225294628_8" function="internal">
        <lane id=":2225294628_8_0" index="0" disallow="tram rail_urban rail rail_electric rail_fast ship cable_car subway" speed="7.97" length="10.18" shape="4829.72,2801.30,808.56 4831.26,2798.66,808.60 4834.00,2796.98,808.64 4837.87,2796.42,808.68"/>
    </edge>
    <edge id=":2225294628_9" function="internal">
        <lane id=":2225294628_9_0" index="0" disallow="tram rail_urban rail rail_electric rail_fast ship cable_car subway" speed="3.65" length="3.23" shape="4829.94,2804.10,808.51 4830.73,2803.69,808.51 4831.54,2804.07,808.51 4832.36,2805.26,808.51"/>
    </edge>
    <edge id=":2225294628_3" function="internal">
        <lane id=":2225294628_3_0" index="0" disallow="tram rail_urban rail rail_electric rail_fast ship cable_car subway" speed="6.48" length="9.03" shape="4837.88,2799.62,808.71 4835.43,2799.98,808.65 4833.69,2801.04,808.61 4832.67,2802.80,808.56 4832.36,2805.26,808.51"/>
    </edge>
    <edge id=":2225294628_4" function="internal">
        <lane id=":2225294628_4_0" index="0" disallow="tram rail_urban rail rail_electric rail_fast ship cable_car subway" speed="8.06" length="14.21" shape="4837.88,2799.62,808.71 4834.01,2799.08,808.65 4831.22,2797.46,808.61 4829.51,2794.74,808.56 4828.89,2790.93,808.51"/>
    </edge>
    <edge id=":2225294628_5" function="internal">
        <lane id=":2225294628_5_0" index="0" disallow="tram rail_urban rail rail_electric rail_fast ship cable_car subway" speed="3.65" length="4.67" shape="4837.88,2799.62,808.71 4836.68,2798.82,808.70 4836.28,2798.02,808.69 4836.68,2797.22,808.69 4837.87,2796.42,808.68"/>
    </edge>
    <edge id=":2225294628_6" function="internal">
        <lane id=":2225294628_6_0" index="0" disallow="tram rail_urban rail rail_electric rail_fast ship cable_car subway" speed="6.57" length="9.11" shape="4832.09,2790.86,808.51 4832.49,2793.30,808.56 4833.59,2795.04,808.60 4835.38,2796.08,808.63 4837.87,2796.42,808.68"/>
    </edge>
    <edge id=":2225294628_7" function="internal">
        <lane id=":2225294628_7_0" index="0" disallow="tram rail_urban rail rail_electric rail_fast ship cable_car subway" speed="13.89" length="14.40" shape="4832.09,2790.86,808.51 4832.36,2805.26,808.51"/>
    </edge>
    <edge id=":2225294631_0" function="internal">
        <lane id=":2225294631_0_0" index="0" allow="pedestrian bicycle" speed="4.17" length="1.07" width="2.00" shape="4973.95,2785.36,814.87 4974.00,2785.08,814.87 4974.16,2784.92,814.87 4974.35,2784.77,814.86 4974.51,2784.50,814.86"/>
    </edge>
    <edge id=":2225294631_1" function="internal">
        <lane id=":2225294631_1_0" index="0" disallow="tram rail_urban rail rail_electric rail_fast ship cable_car subway" speed="3.65" length="1.44" shape="4973.95,2785.36,814.87 4974.70,2784.13,814.83"/>
    </edge>
    <edge id=":2225294631_3" function="internal">
        <lane id=":2225294631_3_0" index="0" disallow="tram rail_urban rail rail_electric rail_fast ship cable_car subway" speed="3.65" length="3.23" shape="4974.70,2784.13,814.83 4975.48,2783.70,814.81 4976.30,2784.07,814.79 4977.14,2785.23,814.75"/>
    </edge>
    <edge id=":2225294631_2" function="internal">
        <lane id=":2225294631_2_0" index="0" allow="pedestrian bicycle" speed="3.92" length="3.01" width="2.00" shape="4978.12,2782.70,815.25 4977.65,2782.88,815.17 4977.34,2783.36,815.07 4977.17,2784.14,814.93 4977.14,2785.23,814.75"/>
    </edge>
    <edge id=":2225294638_0" function="internal">
        <lane id=":2225294638_0_0" index="0" allow="pedestrian bicycle" speed="2.78" length="5.51" width="2.00" shape="5775.21,2784.38,820.08 5774.96,2782.80,820.12 5774.51,2781.78,820.15 5773.79,2780.87,820.18 5772.73,2779.62,820.23"/>
    </edge>
    <edge id=":2225294638_1" function="internal">
        <lane id=":2225294638_1_0" index="0" allow="pedestrian bicycle" speed="2.78" length="6.54" width="2.00" shape="5775.21,2784.38,820.08 5775.19,2782.49,820.18 5775.54,2781.22,820.24 5776.29,2780.05,820.32 5777.48,2778.52,820.42"/>
    </edge>
    <edge id=":2225294638_2" function="internal">
        <lane id=":2225294638_2_0" index="0" allow="pedestrian bicycle" speed="2.78" length="2.61" width="2.00" shape="5775.21,2784.38,820.08 5775.65,2783.58,820.07 5776.12,2783.29,820.07 5776.64,2783.50,820.06 5777.01,2783.96,820.06"/>
    </edge>
    <edge id=":2225294638_8" function="internal">
        <lane id=":2225294638_8_0" index="0" allow="pedestrian bicycle" speed="2.78" length="0.31" width="2.00" shape="5777.01,2783.96,820.06 5777.21,2784.20,820.06"/>
    </edge>
    <edge id=":2225294638_3" function="internal">
        <lane id=":2225294638_3_0" index="0" allow="pedestrian bicycle" speed="2.78" length="5.10" width="2.00" shape="5778.82,2779.53,820.23 5777.99,2780.80,820.18 5777.44,2781.73,820.14 5777.19,2782.73,820.11 5777.21,2784.20,820.06"/>
    </edge>
    <edge id=":2225294638_4" function="internal">
        <lane id=":2225294638_4_0" index="0" allow="pedestrian bicycle" speed="2.78" length="4.07" width="2.00" shape="5778.82,2779.53,820.23 5777.43,2781.16,820.23 5775.95,2781.72,820.23 5775.63,2781.61,820.23"/>
    </edge>
    <edge id=":2225294638_5" function="internal">
        <lane id=":2225294638_5_0" index="0" allow="pedestrian bicycle" speed="2.75" length="2.00" width="2.00" shape="5778.82,2779.53,820.23 5778.11,2779.78,820.29 5777.64,2779.70,820.32 5777.43,2779.28,820.36 5777.45,2778.98,820.38"/>
    </edge>
    <edge id=":2225294638_9" function="internal">
        <lane id=":2225294638_9_0" index="0" allow="pedestrian bicycle" speed="2.78" length="3.60" width="2.00" shape="5775.63,2781.61,820.23 5774.38,2781.20,820.23 5772.73,2779.62,820.23"/>
    </edge>
    <edge id=":2225294638_10" function="internal">
        <lane id=":2225294638_10_0" index="0" allow="pedestrian bicycle" speed="2.75" length="0.46" width="2.00" shape="5777.45,2778.98,820.38 5777.48,2778.52,820.42"/>
    </edge>
    <edge id=":2225294638_6" function="internal">
        <lane id=":2225294638_6_0" index="0" allow="pedestrian bicycle" speed="2.78" length="6.67" width="2.00" shape="5773.91,2778.70,820.23 5775.36,2780.05,820.18 5776.32,2781.09,820.14 5776.90,2782.31,820.11 5777.21,2784.20,820.06"/>
    </edge>
    <edge id=":2225294638_7" function="internal">
        <lane id=":2225294638_7_0" index="0" allow="pedestrian bicycle" speed="2.67" length="2.19" width="2.00" shape="5773.91,2778.70,820.23 5773.96,2779.37,820.23 5773.78,2779.75,820.23 5773.37,2779.83,820.23 5772.73,2779.62,820.23"/>
    </edge>
    <edge id=":2225294643_0" function="internal">
        <lane id=":2225294643_0_0" index="0" allow="pedestrian bicycle" speed="2.78" length="5.43" width="2.00" shape="5777.56,2788.20,819.79 5777.82,2789.74,819.74 5778.32,2790.72,819.71 5779.12,2791.56,819.68 5780.28,2792.68,819.64"/>
    </edge>
    <edge id=":2225294643_1" function="internal">
        <lane id=":2225294643_1_0" index="0" allow="pedestrian bicycle" speed="2.78" length="6.77" width="2.00" shape="5777.56,2788.20,819.79 5777.60,2790.16,819.74 5777.27,2791.49,819.71 5776.57,2792.73,819.68 5775.46,2794.41,819.64"/>
    </edge>
    <edge id=":2225294643_2" function="internal">
        <lane id=":2225294643_2_0" index="0" allow="pedestrian bicycle" speed="2.78" length="2.92" width="2.00" shape="5777.56,2788.20,819.79 5777.13,2788.99,819.79 5776.65,2789.29,819.79 5776.13,2789.08,819.79 5775.57,2788.38,819.80"/>
    </edge>
    <edge id=":2225294648_0" function="internal">
        <lane id=":2225294648_0_0" index="0" disallow="tram rail_urban rail rail_electric rail_fast ship cable_car subway" speed="7.77" length="10.66" shape="6253.24,2820.14,816.43 6251.59,2818.34,816.47 6249.44,2817.36,816.51 6246.80,2817.19,816.55 6243.66,2817.84,816.60"/>
    </edge>
    <edge id=":2225294648_1" function="internal">
        <lane id=":2225294648_1_0" index="0" disallow="tram rail_urban rail rail_electric rail_fast ship cable_car subway" speed="13.89" length="14.73" shape="6253.24,2820.14,816.43 6245.10,2807.87,816.60"/>
    </edge>
    <edge id=":2225294648_2" function="internal">
        <lane id=":2225294648_2_0" index="0" disallow="tram rail_urban rail rail_electric rail_fast ship cable_car subway" speed="3.65" length="1.44" shape="6253.24,2820.14,816.43 6253.27,2818.70,816.43"/>
    </edge>
    <edge id=":2225294648_9" function="internal">
        <lane id=":2225294648_9_0" index="0" disallow="tram rail_urban rail rail_electric rail_fast ship cable_car subway" speed="3.65" length="3.23" shape="6253.27,2818.70,816.43 6253.73,2817.93,816.43 6254.62,2817.84,816.43 6255.94,2818.42,816.43"/>
    </edge>
    <edge id=":2225294648_3" function="internal">
        <lane id=":2225294648_3_0" index="0" disallow="tram rail_urban rail rail_electric rail_fast ship cable_car subway" speed="13.89" length="14.84" shape="6247.73,2806.06,816.60 6255.94,2818.42,816.43"/>
    </edge>
    <edge id=":2225294648_4" function="internal">
        <lane id=":2225294648_4_0" index="0" disallow="tram rail_urban rail rail_electric rail_fast ship cable_car subway" speed="7.57" length="4.55" shape="6247.73,2806.06,816.60 6249.71,2810.04,816.60 6249.71,2810.14,816.60"/>
    </edge>
    <edge id=":2225294648_5" function="internal">
        <lane id=":2225294648_5_0" index="0" disallow="tram rail_urban rail rail_electric rail_fast ship cable_car subway" speed="3.65" length="1.44" shape="6247.73,2806.06,816.60 6247.75,2807.50,816.60"/>
    </edge>
    <edge id=":2225294648_10" function="internal">
        <lane id=":2225294648_10_0" index="0" disallow="tram rail_urban rail rail_electric rail_fast ship cable_car subway" speed="7.57" length="10.93" shape="6249.71,2810.14,816.60 6249.68,2813.33,816.60 6247.67,2815.93,816.60 6243.66,2817.84,816.60"/>
    </edge>
    <edge id=":2225294648_11" function="internal">